Circuit: * C:\Users\mdotg\Documents\GitHub\Lab\Lab 2\Spice sim\LM324.asc

Early termination of direct N-R iteration.
Direct Newton iteration failed to find .op point.  (Use ".option noopiter" to skip.)
Starting Gmin stepping
Gmin = 10
vernier = 0.5
vernier = 0.25
vernier = 0.125
vernier = 0.0625
Gmin = 8.61953
vernier = 0.03125
vernier = 0.015625
vernier = 0.0078125
vernier = 0.00390625
Gmin = 8.47038
vernier = 0.00195313
vernier = 0.000976563
vernier = 0.000488281
Gmin = 0
Gmin stepping succeeded in finding the operating point.


gain: v(vout)/v(vin)=(23.6807dB,-56.0911°)


Date: Sat Nov 17 21:49:34 2018
Total elapsed time: 0.431 seconds.

tnom = 27
temp = 27
method = trap
totiter = 1452
traniter = 0
tranpoints = 0
accept = 0
rejected = 0
matrix size = 107
fillins = 898
solver = Normal
Matrix Compiler1:    5816 opcodes
Matrix Compiler2:    1602 opcodes  7.1/[3.6]/7.7

