Circuit: * C:\Users\mdotg\Documents\GitHub\Lab\Lab 2\Spice sim\LM324.asc

Early termination of direct N-R iteration.
Direct Newton iteration failed to find .op point.  (Use ".option noopiter" to skip.)
Starting Gmin stepping
Gmin = 10
vernier = 0.5
vernier = 0.25
vernier = 0.125
vernier = 0.0625
Gmin = 8.61953
vernier = 0.03125
vernier = 0.015625
vernier = 0.0078125
vernier = 0.00390625
Gmin = 8.47038
vernier = 0.00195313
vernier = 0.000976563
vernier = 0.000488281
Gmin = 0
Gmin stepping succeeded in finding the operating point.




Date: Mon Nov 19 10:37:46 2018
Total elapsed time: 4.700 seconds.

tnom = 27
temp = 27
method = modified trap
totiter = 85077
traniter = 83623
tranpoints = 41613
accept = 27618
rejected = 13995
matrix size = 107
fillins = 911
solver = Normal
Thread vector: 12.0/10.0[2] 7.2/3.1[2] 6.0/4.0[2] 1.8/2.1[1]  2592/500
Matrix Compiler1: 116.27 KB object code size  38.9/20.0/[15.0]
Matrix Compiler2: 23.73 KB object code size  8.3/5.4/[3.2]

