Circuit: * C:\Users\mdotg\Documents\GitHub\Lab\Lab 2\Spice sim\LM324.asc

Early termination of direct N-R iteration.
Direct Newton iteration failed to find .op point.  (Use ".option noopiter" to skip.)
Starting Gmin stepping
Gmin = 10
vernier = 0.5
vernier = 0.25
vernier = 0.125
vernier = 0.0625
Gmin = 8.61953
vernier = 0.03125
vernier = 0.015625
vernier = 0.0078125
vernier = 0.00390625
Gmin = 8.47038
vernier = 0.00195313
vernier = 0.000976563
vernier = 0.000488281
Gmin = 0
Gmin stepping succeeded in finding the operating point.


gain: v(vout)/v(vin)=(23.6614dB,-55.9286°)


Date: Tue Nov 20 13:13:06 2018
Total elapsed time: 0.381 seconds.

tnom = 27
temp = 27
method = trap
totiter = 1454
traniter = 0
tranpoints = 0
accept = 0
rejected = 0
matrix size = 107
fillins = 911
solver = Normal
Matrix Compiler1:    6056 opcodes
Matrix Compiler2:    1615 opcodes  5.9/[3.9]/4.6

