Circuit: * C:\Users\mdotg\Documents\GitHub\Lab\Lab 2\Spice sim\LM324.asc

Early termination of direct N-R iteration.
Direct Newton iteration failed to find .op point.  (Use ".option noopiter" to skip.)
Starting Gmin stepping
Gmin = 10
vernier = 0.5
vernier = 0.25
Gmin = 2.09715
vernier = 0.125
vernier = 0.0625
vernier = 0.03125
vernier = 0.015625
vernier = 0.0078125
vernier = 0.00390625
vernier = 0.00195313
vernier = 0.000976563
vernier = 0.000488281
Gmin = 0
Gmin = 0
Gmin stepping failed

Starting source stepping with srcstepmethod=0
Source Step = 3.0303%
Source Step = 33.3333%
Source Step = 63.6364%
Source Step = 93.9394%
Source stepping succeeded in finding the operating point.


gain: v(vout)/v(vin)=(5.33071dB,76.813°)


Date: Wed Nov 14 13:36:02 2018
Total elapsed time: 0.435 seconds.

tnom = 27
temp = 27
method = trap
totiter = 1527
traniter = 0
tranpoints = 0
accept = 0
rejected = 0
matrix size = 107
fillins = 987
solver = Normal
Matrix Compiler1:    6091 opcodes
Matrix Compiler2: 24.65 KB object code size  5.7/3.9/[2.6]

