Circuit: * C:\Users\mdotg\Documents\GitHub\Lab\Lab 2\Spice sim\LM324.asc

Early termination of direct N-R iteration.
Direct Newton iteration failed to find .op point.  (Use ".option noopiter" to skip.)
Starting Gmin stepping
Gmin = 10
vernier = 0.5
Gmin = 1.86414
vernier = 0.25
vernier = 0.125
vernier = 0.0625
vernier = 0.03125
vernier = 0.015625
vernier = 0.0078125
vernier = 0.00390625
vernier = 0.00195313
vernier = 0.000976563
vernier = 0.000488281
Gmin = 2.09715
Gmin = 0
Gmin stepping succeeded in finding the operating point.




Date: Wed Nov 14 21:09:53 2018
Total elapsed time: 1.156 seconds.

tnom = 27
temp = 27
method = modified trap
totiter = 3532
traniter = 2095
tranpoints = 1047
accept = 1046
rejected = 1
matrix size = 107
fillins = 982
solver = Normal
Thread vector: 17.0/12.0[2] 8.2/3.3[2] 7.9/4.1[2] 1.8/2.8[1]  2592/500
Matrix Compiler1: 124.08 KB object code size  27.6/28.4/[13.7]
Matrix Compiler2: 24.67 KB object code size  8.5/7.5/[6.5]

