Circuit: * C:\Users\mdotg\Documents\GitHub\Lab\Lab 3\LTspice\LTSpice\Stage2.asc

WARNING: Node NC_01 is floating.

WARNING: Less than two connections to node NC_01.  This node is used by R4.
WARNING: Less than two connections to node VIN.  This node is used by V3.
Direct Newton iteration for .op point succeeded.

Date: Tue Nov 27 15:03:12 2018
Total elapsed time: 0.223 seconds.

tnom = 27
temp = 27
method = modified trap
totiter = 2113
traniter = 2082
tranpoints = 1042
accept = 1042
rejected = 0
matrix size = 31
fillins = 60
solver = Normal
Matrix Compiler1: 5.31 KB object code size  1.4/1.0/[0.4]
Matrix Compiler2: off  [0.5]/0.8/5.2

